5
Coordinates from ORCA-job NiCl4 E -3349.071829045236
  Ni      0.000000     -0.000000      0.000000
  Cl     -0.000000     -1.989000     -1.406400
  Cl      0.000000      1.989000     -1.406400
  Cl     -1.989000     -0.000000      1.406400
  Cl      1.989000     -0.000000      1.406400
5
Coordinates from ORCA-job NiCl4 E -3349.075986306864
  Ni     -0.000000      0.000001     -0.000000
  Cl      0.000000     -2.008308     -1.349284
  Cl     -0.000000      2.008308     -1.349285
  Cl     -2.008307     -0.000000      1.349285
  Cl      2.008307     -0.000001      1.349284
5
Coordinates from ORCA-job NiCl4 E -3349.086818043000
  Ni      0.000001      0.000000      0.000000
  Cl     -0.000001     -2.063107     -1.176443
  Cl     -0.000001      2.063107     -1.176444
  Cl     -2.063107     -0.000000      1.176442
  Cl      2.063109     -0.000000      1.176445
5
Coordinates from ORCA-job NiCl4 E -3349.095689713141
  Ni      0.000001     -0.000001      0.000001
  Cl     -0.000002     -2.112112     -0.993927
  Cl     -0.000002      2.112112     -0.993927
  Cl     -2.112112      0.000001      0.993924
  Cl      2.112115      0.000000      0.993929
5
Coordinates from ORCA-job NiCl4 E -3349.102322041955
  Ni      0.000001     -0.000001      0.000001
  Cl     -0.000002     -2.155923     -0.799239
  Cl     -0.000002      2.155922     -0.799237
  Cl     -2.155923      0.000001      0.799235
  Cl      2.155926      0.000001      0.799241
5
Coordinates from ORCA-job NiCl4 E -3349.106732395390
  Ni      0.000001     -0.000001      0.000001
  Cl     -0.000002     -2.193654     -0.590523
  Cl     -0.000002      2.193653     -0.590521
  Cl     -2.193654      0.000001      0.590518
  Cl      2.193657      0.000001      0.590524
5
Coordinates from ORCA-job NiCl4 E -3349.109148776944
  Ni      0.000000     -0.000001      0.000001
  Cl     -0.000002     -2.226341     -0.366185
  Cl     -0.000001      2.226338     -0.366182
  Cl     -2.226339      0.000002      0.366180
  Cl      2.226341      0.000003      0.366186
5
Coordinates from ORCA-job NiCl4 E -3349.109840476737
  Ni     -0.000000     -0.000001      0.000001
  Cl     -0.000001     -2.242026     -0.300110
  Cl     -0.000000      2.242024     -0.300107
  Cl     -2.242025      0.000001      0.300105
  Cl      2.242026      0.000002      0.300111
5
Coordinates from ORCA-job NiCl4 E -3349.110959553520
  Ni      0.000001      0.000002     -0.000001
  Cl     -0.000003     -2.280360     -0.070421
  Cl     -0.000002      2.280364     -0.070419
  Cl     -2.280359     -0.000003      0.070417
  Cl      2.280363     -0.000002      0.070424
5
Coordinates from ORCA-job NiCl4 E -3349.110593128656
  Ni      0.000001      0.000002     -0.000001
  Cl     -0.000001     -2.299365      0.158275
  Cl     -0.000001      2.299370      0.158275
  Cl     -2.299365     -0.000004     -0.158279
  Cl      2.299366     -0.000003     -0.158271
5
Coordinates from ORCA-job NiCl4 E -3349.110769819044
  Ni      0.000000      0.000002     -0.000001
  Cl     -0.000001     -2.302482     -0.073000
  Cl     -0.000000      2.302486     -0.072998
  Cl     -2.302482     -0.000003      0.072995
  Cl      2.302483     -0.000003      0.073003
5
Coordinates from ORCA-job NiCl4 E -3349.110987315762
  Ni     -0.000000      0.000000     -0.000004
  Cl     -0.000001     -2.284756      0.047614
  Cl     -0.000000      2.284755      0.047616
  Cl     -2.284754      0.000000     -0.047617
  Cl      2.284756      0.000000     -0.047609
5
Coordinates from ORCA-job NiCl4 E -3349.110976687638
  Ni     -0.000001      0.000000     -0.000003
  Cl      0.000000     -2.288890     -0.047739
  Cl      0.000000      2.288890     -0.047738
  Cl     -2.288888     -0.000000      0.047736
  Cl      2.288888     -0.000000      0.047744
5
Coordinates from ORCA-job NiCl4 E -3349.110983952069
  Ni     -0.000001      0.000000      0.000005
  Cl     -0.000000     -2.287037      0.047539
  Cl     -0.000000      2.287037      0.047541
  Cl     -2.287037     -0.000000     -0.047547
  Cl      2.287037      0.000000     -0.047539
5
Coordinates from ORCA-job NiCl4 E -3349.110983901541
  Ni     -0.000000      0.000000      0.000004
  Cl     -0.000000     -2.287160     -0.047196
  Cl     -0.000000      2.287159     -0.047195
  Cl     -2.287161      0.000000      0.047190
  Cl      2.287161     -0.000000      0.047198
5
Coordinates from ORCA-job NiCl4 E -3349.110995929589
  Ni      0.000001      0.000002     -0.000105
  Cl     -0.000003     -2.283717      0.031109
  Cl      0.000002      2.283724      0.031110
  Cl     -2.283700     -0.000007     -0.031061
  Cl      2.283700     -0.000002     -0.031053
5
Coordinates from ORCA-job NiCl4 E -3349.111002372387
  Ni      0.000006      0.000004     -0.000310
  Cl     -0.000009     -2.286456     -0.004991
  Cl     -0.000005      2.286467     -0.004990
  Cl     -2.286472     -0.000010      0.005142
  Cl      2.286481     -0.000006      0.005150
5
Coordinates from ORCA-job NiCl4 E -3349.111003160001
  Ni      0.000002      0.000000     -0.000733
  Cl     -0.000001     -2.286122     -0.003497
  Cl      0.000000      2.286123     -0.003495
  Cl     -2.285604     -0.000001      0.003858
  Cl      2.285603      0.000000      0.003866
5
Coordinates from ORCA-job NiCl4 E -3349.111003326876
  Ni      0.000001      0.000000     -0.000252
  Cl      0.000000     -2.285840     -0.004100
  Cl      0.000000      2.285840     -0.004098
  Cl     -2.285620     -0.000000      0.004221
  Cl      2.285619      0.000000      0.004229
5
Coordinates from ORCA-job NiCl4 E -3349.111003234148
  Ni      0.000001      0.000000     -0.000366
  Cl      0.000000     -2.285874     -0.003694
  Cl     -0.000000      2.285874     -0.003693
  Cl     -2.285582     -0.000000      0.003873
  Cl      2.285581     -0.000001      0.003880
5
Coordinates from ORCA-job NiCl4 E -3349.111004041545
  Ni      0.000000      0.000001     -0.000561
  Cl      0.000000     -2.285887     -0.003245
  Cl      0.000000      2.285888     -0.003243
  Cl     -2.285614     -0.000001      0.003520
  Cl      2.285613     -0.000001      0.003528
5
Coordinates from ORCA-job NiCl4 E -3349.111003315463
  Ni      0.000001      0.000000     -0.000445
  Cl     -0.000000     -2.285854     -0.003414
  Cl     -0.000000      2.285854     -0.003412
  Cl     -2.285654     -0.000000      0.003632
  Cl      2.285654     -0.000000      0.003639
5
Coordinates from ORCA-job NiCl4 E -3349.111003363066
  Ni      0.000001     -0.000000     -0.000491
  Cl     -0.000001     -2.285821     -0.003329
  Cl     -0.000001      2.285821     -0.003327
  Cl     -2.285688      0.000000      0.003570
  Cl      2.285688     -0.000000      0.003577
5
Coordinates from ORCA-job NiCl4 E -3349.111003393711
  Ni      0.000000      0.000000     -0.000562
  Cl     -0.000000     -2.285775     -0.003213
  Cl     -0.000000      2.285775     -0.003211
  Cl     -2.285746     -0.000001      0.003489
  Cl      2.285747     -0.000001      0.003496
5
Coordinates from ORCA-job NiCl4 E -3349.111003162852
  Ni      0.000000      0.000000     -0.000552
  Cl     -0.000000     -2.285772     -0.003226
  Cl     -0.000000      2.285772     -0.003224
  Cl     -2.285747     -0.000000      0.003498
  Cl      2.285747     -0.000000      0.003505
5
Coordinates from ORCA-job NiCl4 E -3349.111003735171
  Ni      0.000000     -0.000000     -0.000556
  Cl     -0.000000     -2.285768     -0.003220
  Cl     -0.000001      2.285768     -0.003219
  Cl     -2.285751     -0.000000      0.003494
  Cl      2.285751     -0.000000      0.003501
5
Coordinates from ORCA-job NiCl4 E -3349.111003241671
  Ni      0.000003     -0.000004     -0.000834
  Cl     -0.000007     -2.285596     -0.002817
  Cl     -0.000005      2.285584     -0.002815
  Cl     -2.285977      0.000007      0.003230
  Cl      2.285986      0.000009      0.003237
5
Coordinates from ORCA-job NiCl4 E -3349.111003338740
  Ni      0.000000     -0.000000     -0.000433
  Cl     -0.000001     -2.285763     -0.003207
  Cl     -0.000001      2.285763     -0.003206
  Cl     -2.285758      0.000000      0.003419
  Cl      2.285759      0.000000      0.003427
5
Coordinates from ORCA-job NiCl4 E -3349.111003039373
  Ni      0.000001     -0.000000     -0.000489
  Cl     -0.000002     -2.285727     -0.003109
  Cl     -0.000000      2.285726     -0.003107
  Cl     -2.285777     -0.000000      0.003348
  Cl      2.285779      0.000001      0.003356
5
Coordinates from ORCA-job NiCl4 E -3349.111003330535
  Ni      0.000001     -0.000001     -0.000517
  Cl     -0.000003     -2.285729     -0.003064
  Cl     -0.000001      2.285726     -0.003062
  Cl     -2.285778      0.000001      0.003318
  Cl      2.285780      0.000003      0.003325
5
Coordinates from ORCA-job NiCl4 E -3349.111003429860
  Ni      0.000001     -0.000001     -0.000588
  Cl     -0.000002     -2.285742     -0.002958
  Cl     -0.000000      2.285739     -0.002956
  Cl     -2.285773      0.000001      0.003248
  Cl      2.285774      0.000003      0.003255
5
Coordinates from ORCA-job NiCl4 E -3349.111003331994
  Ni      0.000001     -0.000001     -0.000535
  Cl     -0.000002     -2.285746     -0.003027
  Cl     -0.000001      2.285744     -0.003025
  Cl     -2.285769      0.000001      0.003290
  Cl      2.285770      0.000002      0.003298
5
Coordinates from ORCA-job NiCl4 E -3349.111003331880
  Ni      0.000001     -0.000000     -0.000542
  Cl     -0.000002     -2.285754     -0.003017
  Cl     -0.000001      2.285752     -0.003015
  Cl     -2.285765      0.000001      0.003284
  Cl      2.285766      0.000002      0.003291
5
Coordinates from ORCA-job NiCl4 E -3349.111003386547
  Ni      0.000001     -0.000000     -0.000547
  Cl     -0.000001     -2.285762     -0.003010
  Cl     -0.000001      2.285761     -0.003009
  Cl     -2.285759      0.000000      0.003279
  Cl      2.285760      0.000001      0.003287
