# avogadro generated ORCA file
# Geometry Optimization | PBE0/def2-TZVP
# 
! Opt PBE0 def2-TZVP 

%maxcore 1024

%pal
   nprocs 4
end

* xyz -2 1
   Cu     0.098200    0.101000    0.001800
   C     -0.306400   -1.498600   -0.001200
   N     -1.204700   -2.146700   -0.001000
   C      1.685800    0.550500   -0.000200
   N      2.696200    0.096500   -0.003200
   C     -1.084800    1.251200   -0.000000
   N     -2.189500    1.332200   -0.003000
*


