7
Coordinates from ORCA-job cucn3 E -1918.460770117649
  Cu      0.098200      0.101000      0.001800
  C      -0.306400     -1.498600     -0.001200
  N      -1.204700     -2.146700     -0.001000
  C       1.685800      0.550500     -0.000200
  N       2.696200      0.096500     -0.003200
  C      -1.084800      1.251200     -0.000000
  N      -2.189500      1.332200     -0.003000
7
Coordinates from ORCA-job cucn3 E -1918.514664345244
  Cu      0.103114      0.106866      0.001770
  C      -0.313151     -1.514731     -0.001172
  N      -1.233649     -2.206182     -0.000996
  C       1.720472      0.560773     -0.000156
  N       2.775626      0.097482     -0.003248
  C      -1.105542      1.270328      0.000043
  N      -2.252069      1.371565     -0.003041
7
Coordinates from ORCA-job cucn3 E -1918.551913582140
  Cu      0.107108      0.111883      0.001761
  C      -0.333888     -1.543276     -0.001122
  N      -1.251722     -2.273229     -0.001004
  C       1.773263      0.566659     -0.000149
  N       2.853498      0.105922     -0.003274
  C      -1.144256      1.294189      0.000041
  N      -2.309202      1.423952     -0.003053
7
Coordinates from ORCA-job cucn3 E -1918.582287046171
  Cu      0.110242      0.116143      0.001775
  C      -0.362534     -1.578771     -0.001063
  N      -1.262126     -2.340713     -0.001019
  C       1.835103      0.569221     -0.000169
  N       2.926409      0.118916     -0.003286
  C      -1.192624      1.320075      0.000010
  N      -2.359670      1.481229     -0.003047
7
Coordinates from ORCA-job cucn3 E -1918.606263044000
  Cu      0.112311      0.119506      0.001781
  C      -0.396632     -1.618019     -0.000995
  N      -1.265884     -2.407468     -0.001033
  C       1.900640      0.567775     -0.000210
  N       2.993865      0.136311     -0.003278
  C      -1.246254      1.346048     -0.000044
  N      -2.403248      1.541948     -0.003020
7
Coordinates from ORCA-job cucn3 E -1918.622629356939
  Cu      0.113124      0.121876      0.001757
  C      -0.433781     -1.657252     -0.000918
  N      -1.264684     -2.475935     -0.001040
  C       1.964068      0.561818     -0.000264
  N       3.058675      0.158142     -0.003250
  C      -1.300533      1.369980     -0.000113
  N      -2.442069      1.607471     -0.002973
7
Coordinates from ORCA-job cucn3 E -1918.632893993587
  Cu      0.112495      0.123073      0.001669
  C      -0.472168     -1.693778     -0.000832
  N      -1.260196     -2.548581     -0.001032
  C       2.021051      0.551436     -0.000324
  N       3.123784      0.184409     -0.003193
  C      -1.352087      1.390397     -0.000192
  N      -2.478080      1.679144     -0.002897
7
Coordinates from ORCA-job cucn3 E -1918.639449128829
  Cu      0.109992      0.122507      0.001479
  C      -0.511758     -1.727692     -0.000744
  N      -1.251961     -2.625155     -0.000992
  C       2.070305      0.536087     -0.000395
  N       3.188152      0.216165     -0.003087
  C      -1.400318      1.407004     -0.000287
  N      -2.509613      1.757183     -0.002774
7
Coordinates from ORCA-job cucn3 E -1918.643404353387
  Cu      0.104849      0.119276      0.001095
  C      -0.553351     -1.760656     -0.000670
  N      -1.238135     -2.704941     -0.000886
  C       2.111754      0.514531     -0.000491
  N       3.248619      0.255391     -0.002878
  C      -1.445759      1.420324     -0.000412
  N      -2.533176      1.842175     -0.002557
7
Coordinates from ORCA-job cucn3 E -1918.645197440023
  Cu      0.096992      0.113091      0.000259
  C      -0.592435     -1.790642     -0.000661
  N      -1.218987     -2.778128     -0.000621
  C       2.140950      0.488617     -0.000631
  N       3.295024      0.298820     -0.002434
  C      -1.483473      1.430005     -0.000578
  N      -2.543271      1.924337     -0.002134
7
Coordinates from ORCA-job cucn3 E -1918.645956128507
  Cu      0.090270      0.107030     -0.000500
  C      -0.610411     -1.804216     -0.000701
  N      -1.204380     -2.812026     -0.000365
  C       2.145343      0.471216     -0.000740
  N       3.306795      0.325759     -0.002033
  C      -1.495856      1.432414     -0.000693
  N      -2.536961      1.965923     -0.001767
7
Coordinates from ORCA-job cucn3 E -1918.647642930373
  Cu      0.072485      0.090124     -0.002028
  C      -0.639742     -1.826211     -0.000798
  N      -1.167921     -2.869160      0.000161
  C       2.133294      0.431291     -0.000986
  N       3.303900      0.385162     -0.001198
  C      -1.504950      1.432205     -0.000932
  N      -2.502266      2.042689     -0.001018
7
Coordinates from ORCA-job cucn3 E -1918.649839256607
  Cu      0.045764      0.063967     -0.003382
  C      -0.664102     -1.844142     -0.000884
  N      -1.115124     -2.920638      0.000631
  C       2.090049      0.379129     -0.001271
  N       3.259281      0.461245     -0.000393
  C      -1.492269      1.424605     -0.001184
  N      -2.428799      2.121935     -0.000318
7
Coordinates from ORCA-job cucn3 E -1918.650705128272
  Cu      0.042492      0.060573     -0.003126
  C      -0.654089     -1.836339     -0.000933
  N      -1.107517     -2.909058      0.000596
  C       2.067113      0.377356     -0.001263
  N       3.229331      0.460923     -0.000469
  C      -1.474036      1.419178     -0.001276
  N      -2.408493      2.113466     -0.000329
7
Coordinates from ORCA-job cucn3 E -1918.651857528951
  Cu      0.005112      0.022388     -0.003717
  C      -0.650888     -1.833425     -0.001284
  N      -1.028611     -2.938991      0.001118
  C       1.952216      0.319070     -0.001891
  N       3.097173      0.540947      0.000467
  C      -1.406366      1.393278     -0.002173
  N      -2.273837      2.182833      0.000680
7
Coordinates from ORCA-job cucn3 E -1918.652145331553
  Cu      0.015399      0.032912     -0.003152
  C      -0.651594     -1.834634     -0.001164
  N      -1.053415     -2.929694      0.000838
  C       1.982414      0.337273     -0.001809
  N       3.135237      0.519288      0.000123
  C      -1.422955      1.402248     -0.001857
  N      -2.310286      2.158707      0.000221
7
Coordinates from ORCA-job cucn3 E -1918.652180778756
  Cu      0.014587      0.031696     -0.002864
  C      -0.651779     -1.836724     -0.001120
  N      -1.051843     -2.932898      0.000714
  C       1.980242      0.337731     -0.001791
  N       3.132236      0.521100     -0.000002
  C      -1.421313      1.402910     -0.001836
  N      -2.307330      2.162286      0.000100
7
Coordinates from ORCA-job cucn3 E -1918.652418942419
  Cu      0.006606      0.019144     -0.000071
  C      -0.654890     -1.858140     -0.000604
  N      -1.040898     -2.959988     -0.000593
  C       1.958263      0.342633     -0.001586
  N       3.105861      0.542354     -0.001275
  C      -1.404151      1.409697     -0.001394
  N      -2.275991      2.190399     -0.001278
7
Coordinates from ORCA-job cucn3 E -1918.652598578901
  Cu     -0.000031      0.008244      0.002517
  C      -0.660311     -1.882421     -0.000005
  N      -1.035300     -2.988782     -0.001960
  C       1.942990      0.351655     -0.001155
  N       3.088654      0.562128     -0.002706
  C      -1.391077      1.420116     -0.000611
  N      -2.250126      2.215161     -0.002880
7
Coordinates from ORCA-job cucn3 E -1918.652693640786
  Cu     -0.004032      0.001051      0.003430
  C      -0.664782     -1.900143      0.000438
  N      -1.034429     -3.006984     -0.002702
  C       1.935496      0.358919     -0.000646
  N       3.081408      0.575685     -0.003582
  C      -1.384202      1.427953      0.000149
  N      -2.234659      2.229620     -0.003887
7
Coordinates from ORCA-job cucn3 E -1918.652712534126
  Cu     -0.004900     -0.000159      0.002658
  C      -0.666255     -1.904035      0.000480
  N      -1.034967     -3.010982     -0.002540
  C       1.935910      0.360560     -0.000415
  N       3.082253      0.578301     -0.003530
  C      -1.384671      1.430186      0.000395
  N      -2.232569      2.232230     -0.003848
7
Coordinates from ORCA-job cucn3 E -1918.652721298476
  Cu     -0.005640     -0.001004      0.001532
  C      -0.666657     -1.905430      0.000385
  N      -1.034777     -3.012018     -0.002120
  C       1.936431      0.360443     -0.000329
  N       3.082801      0.579598     -0.003194
  C      -1.385848      1.430510      0.000392
  N      -2.231511      2.234001     -0.003466
7
Coordinates from ORCA-job cucn3 E -1918.652739079348
  Cu     -0.007942     -0.003185     -0.001128
  C      -0.666854     -1.907762     -0.000014
  N      -1.032973     -3.014572     -0.000939
  C       1.936557      0.359554     -0.000332
  N       3.082296      0.582277     -0.002181
  C      -1.388344      1.430670      0.000088
  N      -2.227940      2.239119     -0.002294
7
Coordinates from ORCA-job cucn3 E -1918.652767340139
  Cu     -0.012327     -0.007567     -0.004888
  C      -0.666001     -1.911565     -0.000843
  N      -1.029240     -3.018781      0.001018
  C       1.934879      0.358399     -0.000658
  N       3.079249      0.586626     -0.000413
  C      -1.391292      1.430292     -0.000787
  N      -2.220468      2.248697     -0.000229
7
Coordinates from ORCA-job cucn3 E -1918.652807327712
  Cu     -0.018833     -0.014157     -0.008823
  C      -0.663216     -1.916412     -0.002162
  N      -1.024119     -3.024380      0.003538
  C       1.930637      0.358151     -0.001517
  N       3.073231      0.591674      0.001971
  C      -1.393865      1.429417     -0.002348
  N      -2.209035      2.261807      0.002539
7
Coordinates from ORCA-job cucn3 E -1918.652848486057
  Cu     -0.025336     -0.021169     -0.010793
  C      -0.658493     -1.920859     -0.003526
  N      -1.020394     -3.028868      0.005529
  C       1.924756      0.360267     -0.002756
  N       3.066473      0.595130      0.003999
  C      -1.394614      1.428211     -0.004100
  N      -2.197590      2.273387      0.004847
7
Coordinates from ORCA-job cucn3 E -1918.652877218048
  Cu     -0.029545     -0.026243     -0.009906
  C      -0.653437     -1.923589     -0.004281
  N      -1.019995     -3.030750      0.006052
  C       1.919575      0.364600     -0.003788
  N       3.062043      0.595678      0.004731
  C      -1.393337      1.427334     -0.005251
  N      -2.190503      2.279070      0.005642
7
Coordinates from ORCA-job cucn3 E -1918.652886990618
  Cu     -0.030303     -0.027816     -0.007581
  C      -0.650523     -1.924077     -0.004049
  N      -1.022322     -3.029865      0.005137
  C       1.917746      0.368539     -0.003942
  N       3.061856      0.594044      0.004025
  C      -1.391708      1.427066     -0.005236
  N      -2.189946      2.278209      0.004845
7
Coordinates from ORCA-job cucn3 E -1918.652887558227
  Cu     -0.029576     -0.027492     -0.005849
  C      -0.649807     -1.923439     -0.003359
  N      -1.024552     -3.028299      0.003915
  C       1.918274      0.370403     -0.003455
  N       3.063540      0.592449      0.002889
  C      -1.391068      1.427035     -0.004530
  N      -2.192011      2.275443      0.003589
7
Coordinates from ORCA-job cucn3 E -1918.652887039090
  Cu     -0.029056     -0.027182     -0.004815
  C      -0.649945     -1.922961     -0.002661
  N      -1.025688     -3.027419      0.002883
  C       1.919024      0.370997     -0.002832
  N       3.064758      0.591884      0.001874
  C      -1.390978      1.426964     -0.003714
  N      -2.193315      2.273816      0.002465
7
Coordinates from ORCA-job cucn3 E -1918.652887099497
  Cu     -0.028799     -0.027208     -0.003507
  C      -0.650396     -1.922684     -0.001707
  N      -1.026475     -3.026955      0.001498
  C       1.919661      0.371372     -0.001960
  N       3.065599      0.591972      0.000506
  C      -1.390900      1.426794     -0.002568
  N      -2.193890      2.272809      0.000938
7
Coordinates from ORCA-job cucn3 E -1918.652887700330
  Cu     -0.028822     -0.027778     -0.001170
  C      -0.651314     -1.922624     -0.000171
  N      -1.027137     -3.026900     -0.000803
  C       1.920170      0.371772     -0.000593
  N       3.066065      0.592947     -0.001748
  C      -1.390585      1.426420     -0.000717
  N      -2.193577      2.272264     -0.001597
7
Coordinates from ORCA-job cucn3 E -1918.652888981896
  Cu     -0.029230     -0.028922      0.001673
  C      -0.652528     -1.922914      0.001394
  N      -1.027349     -3.027497     -0.003290
  C       1.920191      0.372084      0.000726
  N       3.065685      0.594836     -0.004145
  C      -1.389929      1.425914      0.001165
  N      -2.192040      2.272598     -0.004324
7
Coordinates from ORCA-job cucn3 E -1918.652890790878
  Cu     -0.029751     -0.030071      0.003585
  C      -0.653515     -1.923365      0.002103
  N      -1.027148     -3.028383     -0.004607
  C       1.919789      0.372209      0.001225
  N       3.064746      0.596738     -0.005369
  C      -1.389174      1.425513      0.002021
  N      -2.190147      2.273460     -0.005757
7
Coordinates from ORCA-job cucn3 E -1918.652892405276
  Cu     -0.030037     -0.030746      0.004018
  C      -0.654056     -1.923652      0.001900
  N      -1.026971     -3.028973     -0.004532
  C       1.919432      0.372224      0.000930
  N       3.064025      0.597896     -0.005241
  C      -1.388613      1.425316      0.001801
  N      -2.188980      2.274035     -0.005676
7
Coordinates from ORCA-job cucn3 E -1918.652893641774
  Cu     -0.030111     -0.031217      0.003554
  C      -0.654518     -1.923777      0.001197
  N      -1.027058     -3.029275     -0.003671
  C       1.919283      0.372264      0.000214
  N       3.063626      0.598768     -0.004357
  C      -1.388087      1.425175      0.001020
  N      -2.188336      2.274162     -0.004758
7
Coordinates from ORCA-job cucn3 E -1918.652894386955
  Cu     -0.029987     -0.031768      0.002136
  C      -0.655226     -1.923786     -0.000000
  N      -1.027634     -3.029359     -0.002014
  C       1.919421      0.372446     -0.000906
  N       3.063555      0.599851     -0.002717
  C      -1.387361      1.424985     -0.000281
  N      -2.187967      2.273730     -0.003018
7
Coordinates from ORCA-job cucn3 E -1918.652894258229
  Cu     -0.029690     -0.032437      0.000012
  C      -0.656177     -1.923715     -0.001245
  N      -1.028768     -3.029205     -0.000096
  C       1.919903      0.372842     -0.001967
  N       3.063910      0.601147     -0.000875
  C      -1.386502      1.424748     -0.001589
  N      -2.187876      2.272721     -0.001040
7
Coordinates from ORCA-job cucn3 E -1918.652893913009
  Cu     -0.029427     -0.033028     -0.001553
  C      -0.656937     -1.923688     -0.001694
  N      -1.029894     -3.028993      0.000838
  C       1.920416      0.373284     -0.002230
  N       3.064406      0.602199     -0.000036
  C      -1.385861      1.424560     -0.002019
  N      -2.187902      2.271766     -0.000106
7
Coordinates from ORCA-job cucn3 E -1918.652893836371
  Cu     -0.029309     -0.033339     -0.002163
  C      -0.657223     -1.923699     -0.001487
  N      -1.030482     -3.028883      0.000817
  C       1.920678      0.373508     -0.001917
  N       3.064674      0.602691     -0.000121
  C      -1.385610      1.424491     -0.001788
  N      -2.187928      2.271331     -0.000141
