5
Coordinates from ORCA-job AuBr4 E -10432.124219307574
  Au      0.000000     -0.000000     -0.000000
  Br     -1.767900      1.767700      0.000000
  Br      1.767900     -1.767700      0.000000
  Br      1.767700      1.767900     -0.000000
  Br     -1.767700     -1.767900     -0.000000
5
Coordinates from ORCA-job AuBr4 E -10432.124023063461
  Au      0.000001      0.000001      0.000000
  Br     -1.748753      1.748550      0.000000
  Br      1.748750     -1.748556      0.000000
  Br      1.748556      1.748754      0.000000
  Br     -1.748554     -1.748750      0.000000
5
Coordinates from ORCA-job AuBr4 E -10432.124278849949
  Au      0.000001      0.000000      0.000000
  Br     -1.759397      1.759195      0.000000
  Br      1.759395     -1.759197      0.000000
  Br      1.759198      1.759397      0.000000
  Br     -1.759198     -1.759395      0.000000
5
Coordinates from ORCA-job AuBr4 E -10432.124277100642
  Au     -0.000000      0.000000      0.000000
  Br     -1.759145      1.758945      0.000000
  Br      1.759144     -1.758944      0.000000
  Br      1.758946      1.759143      0.000000
  Br     -1.758944     -1.759144      0.000000
