# avogadro generated ORCA file
# C4H4O4Ni | Geometry Optimization | B3LYP/def2-TZVP
# [NiCO4]
#
! Opt B3LYP def2-TZVP FREQ

%maxcore 4096

%pal
   nprocs 4
end

* xyz 0 3
   Ni    -0.000000   -0.000000    0.000000
   C     -0.350300   -1.748500   -1.260900
   O     -0.565800   -2.823900   -0.755600
   C      0.350300    1.748500   -1.260900
   O      0.565800    2.823900   -0.755600
   C     -1.748500    0.350300    1.260900
   O     -2.823900    0.565800    0.755600
   C      1.748500   -0.350300    1.260900
   O      2.823900   -0.565800    0.755600
   H     -0.330900   -1.651300   -2.336400
   H      0.330900    1.651300   -2.336400
   H     -1.651300    0.330900    2.336400
   H      1.651300   -0.330900    2.336400
*


