6
Coordinates from ORCA-job WCl4 E -1982.819844719980
  W      -0.215400     -0.963431      0.118165
  Cl     -1.992836      0.604331     -0.091500
  Cl      1.783731      0.306536     -0.109374
  Cl     -2.173089     -2.311521      0.012006
  Cl      1.505721     -2.601610     -0.005400
  O      -0.156424     -0.315678      1.787151
6
Coordinates from ORCA-job WCl4 E -1982.861150523031
  W      -0.215499     -0.940250      0.191573
  Cl     -1.927768      0.692745     -0.161921
  Cl      1.728059      0.403000     -0.182403
  Cl     -2.116755     -2.358309      0.025246
  Cl      1.441305     -2.636310      0.020092
  O      -0.157640     -0.442248      1.818462
6
Coordinates from ORCA-job WCl4 E -1982.883495333936
  W      -0.214087     -0.902533      0.272254
  Cl     -1.844696      0.757942     -0.238607
  Cl      1.648496      0.474977     -0.273994
  Cl     -2.033518     -2.394985      0.019002
  Cl      1.356230     -2.659127      0.036055
  O      -0.160722     -0.557647      1.896337
6
Coordinates from ORCA-job WCl4 E -1982.893902193505
  W      -0.209243     -0.870729      0.353528
  Cl     -1.737072      0.807721     -0.324535
  Cl      1.550352      0.542262     -0.370638
  Cl     -1.956371     -2.428279      0.005502
  Cl      1.278166     -2.683970      0.026140
  O      -0.174130     -0.648376      2.021051
6
Coordinates from ORCA-job WCl4 E -1982.895263579922
  W      -0.206363     -0.864667      0.416407
  Cl     -1.666422      0.793598     -0.367588
  Cl      1.476359      0.545414     -0.410317
  Cl     -1.934116     -2.408399     -0.011795
  Cl      1.257758     -2.667306      0.008804
  O      -0.175513     -0.680013      2.075537
6
Coordinates from ORCA-job WCl4 E -1982.895677547386
  W      -0.204426     -0.863279      0.426525
  Cl     -1.695046      0.792467     -0.377466
  Cl      1.503826      0.542408     -0.415069
  Cl     -1.938251     -2.405759     -0.015727
  Cl      1.261717     -2.668446     -0.001376
  O      -0.176116     -0.678764      2.094161
6
Coordinates from ORCA-job WCl4 E -1982.895741586096
  W      -0.204183     -0.862582      0.426002
  Cl     -1.700663      0.781623     -0.375826
  Cl      1.509747      0.532020     -0.409499
  Cl     -1.938090     -2.399353     -0.015980
  Cl      1.261647     -2.660748     -0.007563
  O      -0.176754     -0.672333      2.093915
6
Coordinates from ORCA-job WCl4 E -1982.895752264621
  W      -0.204255     -0.862319      0.429142
  Cl     -1.697996      0.777414     -0.378055
  Cl      1.508826      0.529189     -0.406911
  Cl     -1.941004     -2.398874     -0.015650
  Cl      1.263784     -2.658819     -0.014237
  O      -0.177651     -0.667964      2.096759
6
Coordinates from ORCA-job WCl4 E -1982.895753436798
  W      -0.204160     -0.862427      0.430330
  Cl     -1.697050      0.776078     -0.380489
  Cl      1.509702      0.529430     -0.404491
  Cl     -1.940001     -2.399782     -0.013366
  Cl      1.261926     -2.658597     -0.018826
  O      -0.178714     -0.666075      2.097890
6
Coordinates from ORCA-job WCl4 E -1982.895752531256
  W      -0.204018     -0.862709      0.430884
  Cl     -1.695468      0.774079     -0.385669
  Cl      1.512236      0.531383     -0.397676
  Cl     -1.939718     -2.402575     -0.006951
  Cl      1.258827     -2.658799     -0.027567
  O      -0.180156     -0.662752      2.098028
6
Coordinates from ORCA-job WCl4 E -1982.895751172631
  W      -0.203968     -0.862858      0.430607
  Cl     -1.694306      0.772370     -0.390608
  Cl      1.513981      0.533659     -0.391972
  Cl     -1.940610     -2.403914     -0.001140
  Cl      1.256994     -2.658693     -0.033453
  O      -0.180387     -0.661937      2.097614
6
Coordinates from ORCA-job WCl4 E -1982.895749860781
  W      -0.204017     -0.862901      0.429837
  Cl     -1.692672      0.769686     -0.398811
  Cl      1.516342      0.537139     -0.383574
  Cl     -1.943165     -2.404960      0.007988
  Cl      1.255141     -2.657632     -0.041212
  O      -0.179926     -0.662704      2.096821
6
Coordinates from ORCA-job WCl4 E -1982.895750452605
  W      -0.204123     -0.862770      0.429403
  Cl     -1.692220      0.768726     -0.401902
  Cl      1.516923      0.538264     -0.381190
  Cl     -1.944705     -2.404499      0.011166
  Cl      1.255245     -2.656729     -0.042970
  O      -0.179417     -0.664365      2.096541
6
Coordinates from ORCA-job WCl4 E -1982.895751474174
  W      -0.204165     -0.862678      0.429308
  Cl     -1.692256      0.768765     -0.402061
  Cl      1.516769      0.538148     -0.381619
  Cl     -1.945168     -2.403977      0.011210
  Cl      1.255795     -2.656269     -0.042351
  O      -0.179274     -0.665362      2.096561
