# avogadro generated ORCA file
# H6N2Ag | Geometry Optimization 
# 
! Opt PBE0 def2-TZVP 

%maxcore 1820

%pal
   nprocs 4
end
* xyz 1 1
   Ag     3.403000    0.500000    0.000000
   N      2.536900    0.000000    0.000000
   H      2.000000   -0.310000    0.000000
   H      2.226900    0.536900    0.000000
   H      2.846900   -0.536900    0.000000
   N      4.269000    0.000000    0.000000
   H      4.805900   -0.310000    0.000000
   H      4.579000    0.536900    0.000000
   H      3.959000   -0.536900    0.000000
*


