9
Coordinates from ORCA-job agnh3 E -251.965534913055
  Ag      3.403000      0.500000      0.000000
  N       2.536900      0.000000      0.000000
  H       2.000000     -0.310000      0.000000
  H       2.226900      0.536900      0.000000
  H       2.846900     -0.536900      0.000000
  N       4.269000      0.000000      0.000000
  H       4.805900     -0.310000      0.000000
  H       4.579000      0.536900      0.000000
  H       3.959000     -0.536900      0.000000
9
Coordinates from ORCA-job agnh3 E -253.218497393158
  Ag      3.402996      0.518809     -0.000000
  N       2.506418     -0.005614      0.000000
  H       1.955341     -0.320698     -0.000000
  H       2.185833      0.567279      0.000000
  H       2.835646     -0.560369     -0.000000
  N       4.299485     -0.005617      0.000000
  H       4.850559     -0.320697     -0.000000
  H       4.620068      0.567280     -0.000000
  H       3.970255     -0.560373      0.000000
9
Coordinates from ORCA-job agnh3 E -254.284142164497
  Ag      3.402991      0.539855     -0.000000
  N       2.473041     -0.012315     -0.000000
  H       1.911554     -0.329505     -0.000000
  H       2.146290      0.593182      0.000000
  H       2.821497     -0.581282      0.000000
  N       4.332865     -0.012322     -0.000000
  H       4.894346     -0.329505     -0.000000
  H       4.659611      0.593184      0.000000
  H       3.984405     -0.581291      0.000000
9
Coordinates from ORCA-job agnh3 E -255.180908868834
  Ag      3.402987      0.561035     -0.000000
  N       2.440415     -0.018754     -0.000000
  H       1.865354     -0.339481      0.000000
  H       2.108710      0.619460      0.000000
  H       2.808746     -0.601735      0.000000
  N       4.365493     -0.018763      0.000000
  H       4.940547     -0.339481      0.000000
  H       4.697191      0.619464      0.000000
  H       3.997156     -0.601746     -0.000000
9
Coordinates from ORCA-job agnh3 E -255.937663353829
  Ag      3.402983      0.582347     -0.000000
  N       2.408084     -0.025168     -0.000000
  H       1.817772     -0.349951      0.000000
  H       2.072656      0.645804     -0.000000
  H       2.796898     -0.621848      0.000000
  N       4.397826     -0.025179      0.000000
  H       4.988131     -0.349952      0.000000
  H       4.733245      0.645808      0.000000
  H       4.009005     -0.621861     -0.000000
9
Coordinates from ORCA-job agnh3 E -256.576470915572
  Ag      3.402981      0.603780     -0.000000
  N       2.376013     -0.031570      0.000000
  H       1.768863     -0.360839      0.000000
  H       2.038055      0.672092     -0.000000
  H       2.785842     -0.641559     -0.000000
  N       4.429899     -0.031584      0.000000
  H       5.037041     -0.360842      0.000000
  H       4.767845      0.672097     -0.000000
  H       4.020061     -0.641574     -0.000000
9
Coordinates from ORCA-job agnh3 E -257.115396168047
  Ag      3.402978      0.625342     -0.000000
  N       2.344114     -0.038012      0.000000
  H       1.718811     -0.371996      0.000000
  H       2.004783      0.698203     -0.000000
  H       2.775425     -0.660852     -0.000000
  N       4.461799     -0.038027      0.000000
  H       5.087095     -0.371999      0.000000
  H       4.801117      0.698208     -0.000000
  H       4.030478     -0.660868     -0.000000
9
Coordinates from ORCA-job agnh3 E -257.569334028342
  Ag      3.402976      0.647048     -0.000000
  N       2.312297     -0.044539      0.000000
  H       1.667750     -0.383280      0.000000
  H       1.972725      0.724001     -0.000000
  H       2.765468     -0.679689      0.000000
  N       4.493617     -0.044556      0.000000
  H       5.138158     -0.383285      0.000000
  H       4.833174      0.724006      0.000000
  H       4.040436     -0.679706     -0.000000
9
Coordinates from ORCA-job agnh3 E -257.950724435507
  Ag      3.402974      0.668922     -0.000000
  N       2.280478     -0.051183      0.000000
  H       1.615782     -0.394571      0.000000
  H       1.941774      0.749340     -0.000000
  H       2.755784     -0.698028      0.000000
  N       4.525436     -0.051201      0.000000
  H       5.190127     -0.394577      0.000000
  H       4.864123      0.749345      0.000000
  H       4.050120     -0.698046     -0.000000
9
Coordinates from ORCA-job agnh3 E -258.270140411087
  Ag      3.402973      0.690996     -0.000000
  N       2.248575     -0.057964      0.000000
  H       1.562992     -0.405754      0.000000
  H       1.911829      0.774058     -0.000000
  H       2.746165     -0.715819      0.000000
  N       4.557340     -0.057984      0.000000
  H       5.242919     -0.405759      0.000000
  H       4.894068      0.774063      0.000000
  H       4.059740     -0.715837     -0.000000
9
Coordinates from ORCA-job agnh3 E -258.536597990814
  Ag      3.402971      0.713309     -0.000000
  N       2.216496     -0.064897     -0.000000
  H       1.509458     -0.416711      0.000000
  H       1.882789      0.797971     -0.000000
  H       2.736372     -0.732996      0.000000
  N       4.589419     -0.064918     -0.000000
  H       5.296455     -0.416718      0.000000
  H       4.923107      0.797975      0.000000
  H       4.069533     -0.733015     -0.000000
9
Coordinates from ORCA-job agnh3 E -258.757821176755
  Ag      3.402970      0.735907     -0.000000
  N       2.184152     -0.071979      0.000000
  H       1.455250     -0.427335      0.000000
  H       1.854562      0.820868     -0.000000
  H       2.726148     -0.749485     -0.000000
  N       4.621763     -0.072002      0.000000
  H       5.350665     -0.427341      0.000000
  H       4.951334      0.820871      0.000000
  H       4.079757     -0.749504     -0.000000
9
Coordinates from ORCA-job agnh3 E -258.940506440883
  Ag      3.402969      0.758845     -0.000000
  N       2.151458     -0.079200      0.000000
  H       1.400443     -0.437519      0.000000
  H       1.827062      0.842513     -0.000000
  H       2.715211     -0.765192     -0.000000
  N       4.654457     -0.079223      0.000000
  H       5.405472     -0.437526      0.000000
  H       4.978834      0.842515     -0.000000
  H       4.090694     -0.765212     -0.000000
9
Coordinates from ORCA-job agnh3 E -259.090460455998
  Ag      3.402968      0.782188     -0.000000
  N       2.118324     -0.086523      0.000000
  H       1.345135     -0.447172      0.000000
  H       1.800205      0.862632      0.000000
  H       2.703260     -0.780006     -0.000000
  N       4.687590     -0.086547      0.000000
  H       5.460782     -0.447179      0.000000
  H       5.005690      0.862633      0.000000
  H       4.102646     -0.780026     -0.000000
9
Coordinates from ORCA-job agnh3 E -259.212733383542
  Ag      3.402967      0.806003     -0.000000
  N       2.084658     -0.093884      0.000000
  H       1.289448     -0.456217      0.000000
  H       1.773917      0.880918      0.000000
  H       2.689973     -0.793792     -0.000000
  N       4.721256     -0.093908      0.000000
  H       5.516469     -0.456224      0.000000
  H       5.031979      0.880918      0.000000
  H       4.115934     -0.793813     -0.000000
9
Coordinates from ORCA-job agnh3 E -259.311761674025
  Ag      3.402966      0.830359     -0.000000
  N       2.050372     -0.101197     -0.000000
  H       1.233557     -0.464600      0.000000
  H       1.748126      0.897031      0.000000
  H       2.675022     -0.806387     -0.000000
  N       4.755542     -0.101222      0.000000
  H       5.572361     -0.464607      0.000000
  H       5.057769      0.897030     -0.000000
  H       4.130884     -0.806408      0.000000
9
Coordinates from ORCA-job agnh3 E -259.391436784289
  Ag      3.402966      0.855330     -0.000000
  N       2.015390     -0.108340     -0.000000
  H       1.177697     -0.472311     -0.000000
  H       1.722774      0.910610      0.000000
  H       2.658096     -0.817596     -0.000000
  N       4.790523     -0.108365      0.000000
  H       5.628221     -0.472317      0.000000
  H       5.083123      0.910608     -0.000000
  H       4.147811     -0.817618      0.000000
9
Coordinates from ORCA-job agnh3 E -259.455182822082
  Ag      3.402965      0.880974     -0.000000
  N       1.979651     -0.115142     -0.000000
  H       1.122176     -0.479398     -0.000000
  H       1.697809      0.921280      0.000000
  H       2.638911     -0.827197     -0.000000
  N       4.826261     -0.115168      0.000000
  H       5.683743     -0.479404      0.000000
  H       5.108088      0.921276     -0.000000
  H       4.166997     -0.827219      0.000000
9
Coordinates from ORCA-job agnh3 E -259.506026167598
  Ag      3.402964      0.907329     -0.000000
  N       1.943119     -0.121406     -0.000000
  H       1.067388     -0.485972     -0.000000
  H       1.673197      0.928682      0.000000
  H       2.617246     -0.834939     -0.000000
  N       4.862792     -0.121431      0.000000
  H       5.738530     -0.485977      0.000000
  H       5.132700      0.928677     -0.000000
  H       4.188662     -0.834962      0.000000
9
Coordinates from ORCA-job agnh3 E -259.546607640595
  Ag      3.402963      0.934406     -0.000000
  N       1.905795     -0.126917     -0.000000
  H       1.013805     -0.492198     -0.000000
  H       1.648930      0.932503      0.000000
  H       2.592983     -0.840562      0.000000
  N       4.900116     -0.126942      0.000000
  H       5.792113     -0.492203     -0.000000
  H       5.156969      0.932496     -0.000000
  H       4.212926     -0.840585      0.000000
9
Coordinates from ORCA-job agnh3 E -259.579197882431
  Ag      3.402962      0.962179     -0.000000
  N       1.867733     -0.131465     -0.000000
  H       0.961953     -0.498291     -0.000000
  H       1.625026      0.932514      0.000000
  H       2.566133     -0.843816      0.000000
  N       4.938177     -0.131490      0.000000
  H       5.843965     -0.498297     -0.000000
  H       5.180874      0.932506     -0.000000
  H       4.239777     -0.843840      0.000000
9
Coordinates from ORCA-job agnh3 E -259.605689354751
  Ag      3.402961      0.990586     -0.000000
  N       1.829032     -0.134888     -0.000000
  H       0.912382     -0.504487     -0.000000
  H       1.601533      0.928615      0.000000
  H       2.536857     -0.844502      0.000000
  N       4.976878     -0.134912      0.000000
  H       5.893535     -0.504491     -0.000000
  H       5.204369      0.928605     -0.000000
  H       4.269054     -0.844527      0.000000
9
Coordinates from ORCA-job agnh3 E -259.627541010695
  Ag      3.402960      1.019524     -0.000000
  N       1.789826     -0.137116     -0.000000
  H       0.865600     -0.511004     -0.000000
  H       1.578512      0.920904      0.000000
  H       2.505465     -0.842513      0.000000
  N       5.016084     -0.137140      0.000000
  H       5.940316     -0.511008     -0.000000
  H       5.227390      0.920892     -0.000000
  H       4.300447     -0.842539      0.000000
9
Coordinates from ORCA-job agnh3 E -259.645740762325
  Ag      3.402959      1.048869     -0.000000
  N       1.750248     -0.138225     -0.000000
  H       0.821985     -0.518050     -0.000000
  H       1.556012      0.909769      0.000000
  H       2.472407     -0.837894      0.000000
  N       5.055661     -0.138247      0.000000
  H       5.983930     -0.518055     -0.000000
  H       5.249891      0.909754     -0.000000
  H       4.333505     -0.837921      0.000000
9
Coordinates from ORCA-job agnh3 E -259.660817519004
  Ag      3.402958      1.078500     -0.000000
  N       1.710393     -0.138487     -0.000000
  H       0.781657     -0.525855     -0.000000
  H       1.534018      0.896036      0.000000
  H       2.438272     -0.830910      0.000000
  N       5.095516     -0.138508      0.000000
  H       6.024258     -0.525860     -0.000000
  H       5.271886      0.896020     -0.000000
  H       4.367642     -0.830937      0.000000
9
Coordinates from ORCA-job agnh3 E -259.672974414671
  Ag      3.402957      1.108332     -0.000000
  N       1.670275     -0.138416     -0.000000
  H       0.744314     -0.534698     -0.000000
  H       1.512403      0.881101      0.000000
  H       2.403752     -0.822119      0.000000
  N       5.135634     -0.138435      0.000000
  H       6.061600     -0.534704     -0.000000
  H       5.293502      0.881083     -0.000000
  H       4.402162     -0.822146      0.000000
9
Coordinates from ORCA-job agnh3 E -259.682391922059
  Ag      3.402956      1.138325     -0.000000
  N       1.629853     -0.138704     -0.000000
  H       0.709184     -0.544859     -0.000000
  H       1.490945      0.866774      0.000000
  H       2.369557     -0.812337      0.000000
  N       5.176056     -0.138722      0.000000
  H       6.096730     -0.544866     -0.000000
  H       5.314960      0.866753     -0.000000
  H       4.436359     -0.812364      0.000000
9
Coordinates from ORCA-job agnh3 E -259.689496463951
  Ag      3.402955      1.168424     -0.000000
  N       1.589123     -0.140016     -0.000000
  H       0.675286     -0.556465     -0.000000
  H       1.469427      0.854709      0.000000
  H       2.336270     -0.802403      0.000000
  N       5.216786     -0.140033      0.000000
  H       6.130627     -0.556473     -0.000000
  H       5.336479      0.854688     -0.000000
  H       4.469646     -0.802431      0.000000
9
Coordinates from ORCA-job agnh3 E -259.694909120009
  Ag      3.402954      1.198520     -0.000000
  N       1.548178     -0.142801     -0.000000
  H       0.641760     -0.569399     -0.000000
  H       1.447704      0.845909      0.000000
  H       2.304279     -0.792931      0.000000
  N       5.257730     -0.142818      0.000000
  H       6.164153     -0.569409     -0.000000
  H       5.358203      0.845888     -0.000000
  H       4.501638     -0.792959      0.000000
9
Coordinates from ORCA-job agnh3 E -259.699163475493
  Ag      3.402954      1.228459     -0.000000
  N       1.507180     -0.147251     -0.000000
  H       0.607875     -0.583323     -0.000000
  H       1.425669      0.840648      0.000000
  H       2.273764     -0.784264      0.000000
  N       5.298729     -0.147268      0.000000
  H       6.198038     -0.583334     -0.000000
  H       5.380238      0.840627     -0.000000
  H       4.532155     -0.784292      0.000000
9
Coordinates from ORCA-job agnh3 E -259.702489928706
  Ag      3.402953      1.258097     -0.000000
  N       1.466309     -0.153276     -0.000000
  H       0.572865     -0.597641     -0.000000
  H       1.403184      0.838422      0.000000
  H       2.244618     -0.776515      0.000000
  N       5.339601     -0.153293      0.000000
  H       6.233048     -0.597654     -0.000000
  H       5.402723      0.838403      0.000000
  H       4.561300     -0.776543      0.000000
9
Coordinates from ORCA-job agnh3 E -259.704856070216
  Ag      3.402953      1.287389     -0.000000
  N       1.425686     -0.160364     -0.000000
  H       0.535960     -0.611439     -0.000000
  H       1.380054      0.837657      0.000000
  H       2.216206     -0.769509      0.000000
  N       5.380224     -0.160382      0.000000
  H       6.269953     -0.611453     -0.000000
  H       5.425852      0.837638      0.000000
  H       4.589713     -0.769537      0.000000
9
Coordinates from ORCA-job agnh3 E -259.706272707815
  Ag      3.402952      1.316444     -0.000000
  N       1.385312     -0.167704     -0.000000
  H       0.496880     -0.623783     -0.000000
  H       1.356099      0.836172      0.000000
  H       2.187466     -0.762867      0.000000
  N       5.420598     -0.167723      0.000000
  H       6.309033     -0.623798     -0.000000
  H       5.449806      0.836154      0.000000
  H       4.618452     -0.762896      0.000000
9
Coordinates from ORCA-job agnh3 E -259.706937646011
  Ag      3.402952      1.345367     -0.000000
  N       1.345140     -0.174722      0.000000
  H       0.455962     -0.634152     -0.000000
  H       1.331139      0.832652      0.000000
  H       2.157614     -0.756419      0.000000
  N       5.460772     -0.174742      0.000000
  H       6.349951     -0.634167     -0.000000
  H       5.474766      0.832633      0.000000
  H       4.648304     -0.756448      0.000000
9
Coordinates from ORCA-job agnh3 E -259.707131449586
  Ag      3.402952      1.358886     -0.000000
  N       1.326156     -0.177772      0.000000
  H       0.434919     -0.637117     -0.000000
  H       1.317805      0.829433      0.000000
  H       2.142393     -0.753945      0.000000
  N       5.479756     -0.177792      0.000000
  H       6.370996     -0.637132     -0.000000
  H       5.488099      0.829414      0.000000
  H       4.663525     -0.753974      0.000000
9
Coordinates from ORCA-job agnh3 E -259.707349807981
  Ag      3.402952      1.371708     -0.000000
  N       1.307684     -0.180471      0.000000
  H       0.412358     -0.637331     -0.000000
  H       1.302226      0.824734      0.000000
  H       2.126152     -0.752744      0.000000
  N       5.498228     -0.180492      0.000000
  H       6.393557     -0.637346     -0.000000
  H       5.503677      0.824714     -0.000000
  H       4.679766     -0.752772      0.000000
9
Coordinates from ORCA-job agnh3 E -259.707616394307
  Ag      3.402952      1.382411     -0.000000
  N       1.291365     -0.182563      0.000000
  H       0.389843     -0.633673     -0.000000
  H       1.283968      0.819017      0.000000
  H       2.109745     -0.753943      0.000000
  N       5.514548     -0.182586      0.000000
  H       6.416075     -0.633687     -0.000000
  H       5.521932      0.818994     -0.000000
  H       4.696171     -0.753971     -0.000000
9
Coordinates from ORCA-job agnh3 E -259.707886722864
  Ag      3.402953      1.387495     -0.000000
  N       1.282092     -0.183417      0.000000
  H       0.374489     -0.626809     -0.000000
  H       1.266697      0.814732      0.000000
  H       2.097659     -0.758209      0.000000
  N       5.523821     -0.183440      0.000000
  H       6.431430     -0.626821     -0.000000
  H       5.539201      0.814706     -0.000000
  H       4.708257     -0.758236     -0.000000
9
Coordinates from ORCA-job agnh3 E -259.708150735550
  Ag      3.402953      1.387358     -0.000000
  N       1.279579     -0.183125      0.000000
  H       0.368320     -0.619338     -0.000000
  H       1.251626      0.813569      0.000000
  H       2.090519     -0.764739      0.000000
  N       5.526335     -0.183150      0.000000
  H       6.437601     -0.619349     -0.000000
  H       5.554270      0.813541     -0.000000
  H       4.715397     -0.764766     -0.000000
9
Coordinates from ORCA-job agnh3 E -259.708388220326
  Ag      3.402954      1.384931     -0.000000
  N       1.280224     -0.182120      0.000000
  H       0.369391     -0.614637     -0.000000
  H       1.238603      0.815922      0.000000
  H       2.086307     -0.771584      0.000000
  N       5.525691     -0.182147      0.000000
  H       6.436532     -0.614647     -0.000000
  H       5.567290      0.815893     -0.000000
  H       4.719609     -0.771610     -0.000000
9
Coordinates from ORCA-job agnh3 E -259.708546695981
  Ag      3.402954      1.384685     -0.000000
  N       1.278701     -0.181160     -0.000000
  H       0.372117     -0.615684     -0.000000
  H       1.228489      0.819964      0.000000
  H       2.082075     -0.775415      0.000000
  N       5.527214     -0.181188      0.000000
  H       6.433807     -0.615695     -0.000000
  H       5.577403      0.819935     -0.000000
  H       4.723841     -0.775442     -0.000000
9
Coordinates from ORCA-job agnh3 E -259.708640883556
  Ag      3.402954      1.388560     -0.000000
  N       1.272293     -0.180613     -0.000000
  H       0.371125     -0.620965     -0.000000
  H       1.219591      0.823077      0.000000
  H       2.075303     -0.775733      0.000000
  N       5.533623     -0.180640      0.000000
  H       6.434798     -0.620977     -0.000000
  H       5.586300      0.823050     -0.000000
  H       4.730613     -0.775759     -0.000000
9
Coordinates from ORCA-job agnh3 E -259.708704147654
  Ag      3.402954      1.395539     -0.000000
  N       1.261827     -0.180218     -0.000000
  H       0.365663     -0.628004     -0.000000
  H       1.209904      0.824478      0.000000
  H       2.065588     -0.773979      0.000000
  N       5.544089     -0.180246      0.000000
  H       6.440260     -0.628017     -0.000000
  H       5.595987      0.824452     -0.000000
  H       4.740328     -0.774006     -0.000000
9
Coordinates from ORCA-job agnh3 E -259.708745481027
  Ag      3.402954      1.402882     -0.000000
  N       1.250725     -0.179641     -0.000000
  H       0.358011     -0.634351     -0.000000
  H       1.200200      0.824256      0.000000
  H       2.055241     -0.771658      0.000000
  N       5.555191     -0.179668      0.000000
  H       6.447911     -0.634364     -0.000000
  H       5.605691      0.824230     -0.000000
  H       4.750676     -0.771685     -0.000000
9
Coordinates from ORCA-job agnh3 E -259.708768100512
  Ag      3.402954      1.407032     -0.000000
  N       1.243854     -0.178770     -0.000000
  H       0.352522     -0.637925     -0.000000
  H       1.193425      0.823411      0.000000
  H       2.048463     -0.770184      0.000000
  N       5.562062     -0.178798      0.000000
  H       6.453400     -0.637938     -0.000000
  H       5.612466      0.823385     -0.000000
  H       4.757454     -0.770212     -0.000000
9
Coordinates from ORCA-job agnh3 E -259.708782023672
  Ag      3.402954      1.407349     -0.000000
  N       1.242193     -0.177747     -0.000000
  H       0.351061     -0.639185     -0.000000
  H       1.190582      0.823019      0.000000
  H       2.046443     -0.769714      0.000000
  N       5.563723     -0.177774      0.000000
  H       6.454861     -0.639198      0.000000
  H       5.615309      0.822993     -0.000000
  H       4.759475     -0.769743     -0.000000
9
Coordinates from ORCA-job agnh3 E -259.708796968145
  Ag      3.402953      1.405031     -0.000000
  N       1.243671     -0.176407     -0.000000
  H       0.352497     -0.639782     -0.000000
  H       1.189999      0.823311      0.000000
  H       2.047446     -0.769589      0.000000
  N       5.562244     -0.176434      0.000000
  H       6.453425     -0.639795      0.000000
  H       5.615893      0.823285     -0.000000
  H       4.758472     -0.769618     -0.000000
9
Coordinates from ORCA-job agnh3 E -259.708815899197
  Ag      3.402953      1.400237     -0.000000
  N       1.247560     -0.174707     -0.000000
  H       0.356468     -0.640439     -0.000000
  H       1.191089      0.824496      0.000000
  H       2.051040     -0.769420      0.000000
  N       5.558354     -0.174733      0.000000
  H       6.449453     -0.640452      0.000000
  H       5.614804      0.824470     -0.000000
  H       4.754878     -0.769451     -0.000000
9
Coordinates from ORCA-job agnh3 E -259.708838814973
  Ag      3.402953      1.393888     -0.000000
  N       1.252231     -0.172960     -0.000000
  H       0.361562     -0.641614     -0.000000
  H       1.192700      0.826489      0.000000
  H       2.055997     -0.768810      0.000000
  N       5.553682     -0.172985      0.000000
  H       6.444358     -0.641627      0.000000
  H       5.613195      0.826463     -0.000000
  H       4.749922     -0.768843     -0.000000
9
Coordinates from ORCA-job agnh3 E -259.708869632388
  Ag      3.402953      1.386504     -0.000000
  N       1.255902     -0.171318     -0.000000
  H       0.366156     -0.643759     -0.000000
  H       1.193042      0.829117      0.000000
  H       2.060915     -0.767244      0.000000
  N       5.550010     -0.171341      0.000000
  H       6.439763     -0.643771      0.000000
  H       5.612854      0.829092     -0.000000
  H       4.745005     -0.767280     -0.000000
